data_UiO-66-1
_audit_creation_date              2022-01-11
_audit_creation_method            'Materials Studio'
_symmetry_space_group_name_H-M    ' '
_symmetry_Int_Tables_number       0
_symmetry_cell_setting            cubic
loop_
_symmetry_equiv_pos_as_xyz
  x,y,z
  y,x,-x-y-z
  z,-x-y-z,x
  -x-y-z,z,y
  z,x,y
  -x-y-z,y,x
  x,z,-x-y-z
  y,-x-y-z,z
  y,z,x
  x,-x-y-z,y
  -x-y-z,x,z
  z,y,-x-y-z
  y,x,z
  x,y,-x-y-z
  -x-y-z,z,x
  z,-x-y-z,y
  x,z,y
  y,-x-y-z,x
  z,x,-x-y-z
  -x-y-z,y,z
  z,y,x
  -x-y-z,x,y
  x,-x-y-z,z
  y,z,-x-y-z
_cell_length_a                    14.6812
_cell_length_b                    14.6812
_cell_length_c                    14.6812
_cell_angle_alpha                 60.0000
_cell_angle_beta                  60.0000
_cell_angle_gamma                 60.0000
loop_
_atom_site_label
_atom_site_type_symbol
_atom_site_fract_x
_atom_site_fract_y
_atom_site_fract_z
_atom_site_U_iso_or_equiv
_atom_site_adp_type
_atom_site_occupancy
O1     O     0.42500   1.23351  -0.23838   0.00000  Uiso   1.00
C217   C    -0.05051   0.58590   0.42061   0.00000  Uiso   1.00
H223   H    -0.08943   0.64917   0.35695   0.00000  Uiso   1.00
Zr9    Zr   -0.38044   1.38044  -0.38044   0.00000  Uiso   1.00
O10    O    -0.45022   0.54978   0.54978   0.00000  Uiso   1.00
X12    C    -0.49690   1.19294   0.80086   0.00000  Uiso   1.00
H16    H    -0.21655   1.40552  -0.59448   0.00000  Uiso   1.00
O17    O    -0.29817   1.43272  -0.56728   0.00000  Uiso   1.00
X218   C    -0.09828   0.50353   0.50353   0.00000  Uiso   1.00
loop_
_geom_bond_atom_site_label_1
_geom_bond_atom_site_label_2
_geom_bond_distance
_geom_bond_site_symmetry_2
_ccdc_geom_bond_type
O1     Zr9     2.210   6_655 S
O1     X12     1.279   1_654 A
C217   H223    1.094   .     S
C217   C217    1.388   20_655 A
C217   X218    1.399   .     A
Zr9    O1      2.210   11_665 S
Zr9    O1      2.210   12_556 S
Zr9    O1      2.210   19_566 S
Zr9    O1      2.210   20_655 S
Zr9    O10     2.058   1_564 S
Zr9    O10     2.058   3_475 S
Zr9    O17     2.254   .     S
Zr9    O17     2.254   3_575 S
O10    Zr9     2.058   5_564 S
O10    Zr9     2.058   9_366 S
O10    Zr9     2.058   1_546 S
X12    O1      1.279   20_656 A
X12    O1      1.279   1_456 A
X12    X218    1.487   3_476 S
H16    O17     0.978   .     S
O17    Zr9     2.254   10_573 S
O17    Zr9     2.254   5_573 S
X218   C217    1.399   17    A
X218   X12     1.487   3_476 S
