data_3D\Atomistic\(4)
_audit_creation_date              2022-01-11
_audit_creation_method            'Materials Studio'
_symmetry_space_group_name_H-M    'P1'
_symmetry_Int_Tables_number       1
_symmetry_cell_setting            triclinic
loop_
_symmetry_equiv_pos_as_xyz
  x,y,z
_cell_length_a                    15.0000
_cell_length_b                    15.0000
_cell_length_c                    15.0000
_cell_angle_alpha                 90.0000
_cell_angle_beta                  90.0000
_cell_angle_gamma                 90.0000
loop_
_atom_site_label
_atom_site_type_symbol
_atom_site_fract_x
_atom_site_fract_y
_atom_site_fract_z
_atom_site_U_iso_or_equiv
_atom_site_adp_type
_atom_site_occupancy
O1     O    -0.44577   0.83059   0.68870   0.00000  Uiso   1.00
O2     O    -0.44577   0.57229   0.69545   0.00000  Uiso   1.00
O3     O    -0.91845   0.83059   0.69545   0.00000  Uiso   1.00
O4     O    -0.91845   0.57229   0.68870   0.00000  Uiso   1.00
O5     O    -0.81126   0.69807   0.45574   0.00000  Uiso   1.00
O6     O    -0.55296   0.70481   0.45574   0.00000  Uiso   1.00
O7     O    -0.81126   0.70481   0.92842   0.00000  Uiso   1.00
O8     O    -0.55296   0.69807   0.92842   0.00000  Uiso   1.00
O9     O    -0.67874   0.46510   0.82123   0.00000  Uiso   1.00
O10    O    -0.68548   0.46510   0.56293   0.00000  Uiso   1.00
O11    O    -0.68548   0.93778   0.82123   0.00000  Uiso   1.00
O12    O    -0.67874   0.93778   0.56293   0.00000  Uiso   1.00
O13    O    -0.44577   0.69807   0.82123   0.00000  Uiso   1.00
O14    O    -0.44577   0.70481   0.56293   0.00000  Uiso   1.00
O15    O    -0.91845   0.70481   0.82123   0.00000  Uiso   1.00
O16    O    -0.91845   0.69807   0.56293   0.00000  Uiso   1.00
O17    O    -0.81126   0.46510   0.68870   0.00000  Uiso   1.00
O18    O    -0.55296   0.46510   0.69545   0.00000  Uiso   1.00
O19    O    -0.81126   0.93778   0.69545   0.00000  Uiso   1.00
O20    O    -0.55296   0.93778   0.68870   0.00000  Uiso   1.00
O21    O    -0.67874   0.83059   0.45574   0.00000  Uiso   1.00
O22    O    -0.68548   0.57229   0.45574   0.00000  Uiso   1.00
O23    O    -0.68548   0.83059   0.92842   0.00000  Uiso   1.00
O24    O    -0.67874   0.57229   0.92842   0.00000  Uiso   1.00
Zr25   Zr   -0.68211   0.86694   0.69208   0.00000  Uiso   1.00
Zr26   Zr   -0.68211   0.53595   0.69208   0.00000  Uiso   1.00
Zr27   Zr   -0.84761   0.70144   0.69208   0.00000  Uiso   1.00
Zr28   Zr   -0.51662   0.70144   0.69208   0.00000  Uiso   1.00
Zr29   Zr   -0.68211   0.70144   0.85757   0.00000  Uiso   1.00
Zr30   Zr   -0.68211   0.70144   0.52658   0.00000  Uiso   1.00
O31    O    -0.75102   0.77035   0.76098   0.00000  Uiso   1.00
O32    O    -0.75102   0.63253   0.62317   0.00000  Uiso   1.00
O33    O    -0.61320   0.77035   0.62317   0.00000  Uiso   1.00
O34    O    -0.61320   0.63253   0.76098   0.00000  Uiso   1.00
C35    C    -0.47175   0.91180   0.68779   0.00000  Uiso   1.00
C36    C    -0.47175   0.49108   0.69637   0.00000  Uiso   1.00
C37    C    -0.89248   0.91180   0.69637   0.00000  Uiso   1.00
C38    C    -0.89248   0.49108   0.68779   0.00000  Uiso   1.00
C39    C    -0.89248   0.69715   0.48171   0.00000  Uiso   1.00
C40    C    -0.47175   0.70573   0.48171   0.00000  Uiso   1.00
C41    C    -0.89248   0.70573   0.90244   0.00000  Uiso   1.00
C42    C    -0.47175   0.69715   0.90244   0.00000  Uiso   1.00
C43    C    -0.67782   0.49108   0.90244   0.00000  Uiso   1.00
C44    C    -0.68640   0.49108   0.48171   0.00000  Uiso   1.00
C45    C    -0.68640   0.91180   0.90244   0.00000  Uiso   1.00
C46    C    -0.67782   0.91180   0.48171   0.00000  Uiso   1.00
H47    H    -0.81289   0.83222   0.56130   0.00000  Uiso   1.00
O48    O    -0.77523   0.79456   0.59896   0.00000  Uiso   1.00
H49    H    -0.81289   0.57066   0.82286   0.00000  Uiso   1.00
O50    O    -0.77523   0.60832   0.78520   0.00000  Uiso   1.00
H51    H    -0.55133   0.83222   0.82286   0.00000  Uiso   1.00
O52    O    -0.58899   0.79456   0.78520   0.00000  Uiso   1.00
H53    H    -0.55133   0.57066   0.56130   0.00000  Uiso   1.00
O54    O    -0.58899   0.60832   0.59896   0.00000  Uiso   1.00
loop_
_geom_bond_atom_site_label_1
_geom_bond_atom_site_label_2
_geom_bond_distance
_geom_bond_site_symmetry_2
_ccdc_geom_bond_type
O1     Zr28    2.210   .     S
O1     C35     1.279   .     D
O2     Zr28    2.210   .     S
O2     C36     1.279   .     D
O3     Zr27    2.210   .     S
O3     C37     1.279   .     D
O4     Zr27    2.210   .     S
O4     C38     1.279   .     D
O5     Zr30    2.210   .     S
O5     C39     1.279   .     D
O6     Zr30    2.210   .     S
O6     C40     1.279   .     D
O7     Zr29    2.210   .     S
O7     C41     1.279   .     D
O8     Zr29    2.210   .     S
O8     C42     1.279   .     D
O9     Zr26    2.210   .     S
O9     C43     1.279   .     D
O10    Zr26    2.210   .     S
O10    C44     1.279   .     D
O11    Zr25    2.210   .     S
O11    C45     1.279   .     D
O12    Zr25    2.210   .     S
O12    C46     1.279   .     D
O13    Zr28    2.210   .     S
O13    C42     1.279   .     D
O14    Zr28    2.210   .     S
O14    C40     1.279   .     D
O15    Zr27    2.210   .     S
O15    C41     1.279   .     D
O16    Zr27    2.210   .     S
O16    C39     1.279   .     D
O17    Zr26    2.210   .     S
O17    C38     1.279   .     D
O18    Zr26    2.210   .     S
O18    C36     1.279   .     D
O19    Zr25    2.210   .     S
O19    C37     1.279   .     D
O20    Zr25    2.210   .     S
O20    C35     1.279   .     D
O21    Zr30    2.210   .     S
O21    C46     1.279   .     D
O22    Zr30    2.210   .     S
O22    C44     1.279   .     D
O23    Zr29    2.210   .     S
O23    C45     1.279   .     D
O24    Zr29    2.210   .     S
O24    C43     1.279   .     D
Zr25   O31     2.058   .     S
Zr25   O33     2.058   .     S
Zr25   O48     2.254   .     S
Zr25   O52     2.254   .     S
Zr26   O32     2.058   .     S
Zr26   O34     2.058   .     S
Zr26   O50     2.254   .     S
Zr26   O54     2.254   .     S
Zr27   O31     2.058   .     S
Zr27   O32     2.058   .     S
Zr27   O48     2.254   .     S
Zr27   O50     2.254   .     S
Zr28   O33     2.058   .     S
Zr28   O34     2.058   .     S
Zr28   O52     2.254   .     S
Zr28   O54     2.254   .     S
Zr29   O31     2.058   .     S
Zr29   O34     2.058   .     S
Zr29   O50     2.254   .     S
Zr29   O52     2.254   .     S
Zr30   O32     2.058   .     S
Zr30   O33     2.058   .     S
Zr30   O48     2.254   .     S
Zr30   O54     2.254   .     S
H47    O48     0.978   .     S
H49    O50     0.978   .     S
H51    O52     0.978   .     S
H53    O54     0.978   .     S
