data_3D\Atomistic\(5)
_audit_creation_date              2022-01-11
_audit_creation_method            'Materials Studio'
_symmetry_space_group_name_H-M    'P1'
_symmetry_Int_Tables_number       1
_symmetry_cell_setting            triclinic
loop_
_symmetry_equiv_pos_as_xyz
  x,y,z
_cell_length_a                    15.0000
_cell_length_b                    15.0000
_cell_length_c                    15.0000
_cell_angle_alpha                 90.0000
_cell_angle_beta                  90.0000
_cell_angle_gamma                 90.0000
loop_
_atom_site_label
_atom_site_type_symbol
_atom_site_fract_x
_atom_site_fract_y
_atom_site_fract_z
_atom_site_U_iso_or_equiv
_atom_site_adp_type
_atom_site_occupancy
C1     C    -0.61078   0.48104  -0.44436   0.00000  Uiso   1.00
C2     C    -0.55945   0.39213  -0.44436   0.00000  Uiso   1.00
C3     C    -0.45678   0.39213  -0.44436   0.00000  Uiso   1.00
C4     C    -0.40545   0.48104  -0.44436   0.00000  Uiso   1.00
C5     C    -0.45678   0.56995  -0.44436   0.00000  Uiso   1.00
C6     C    -0.55945   0.56995  -0.44436   0.00000  Uiso   1.00
C7     C    -0.71344   0.47965  -0.44436   0.00000  Uiso   1.00
C8     C    -0.30278   0.48192  -0.44436   0.00000  Uiso   1.00
O9     O    -0.77328   0.56060  -0.44436   0.00000  Uiso   1.00
O10    O    -0.77076   0.39690  -0.44436   0.00000  Uiso   1.00
O11    O    -0.24226   0.56236  -0.44436   0.00000  Uiso   1.00
O12    O    -0.24390   0.40028  -0.44436   0.00000  Uiso   1.00
H13    H    -0.59745   0.32631  -0.44436   0.00000  Uiso   1.00
H14    H    -0.41878   0.32631  -0.44436   0.00000  Uiso   1.00
H15    H    -0.41878   0.63577  -0.44436   0.00000  Uiso   1.00
H16    H    -0.59745   0.63577  -0.44436   0.00000  Uiso   1.00
loop_
_geom_bond_atom_site_label_1
_geom_bond_atom_site_label_2
_geom_bond_distance
_geom_bond_site_symmetry_2
_ccdc_geom_bond_type
C1     C2      1.540   .     A
C1     C6      1.540   .     A
C1     C7      1.540   .     S
C2     C3      1.540   .     A
C2     H13     1.140   .     S
C3     C4      1.540   .     A
C3     H14     1.140   .     S
C4     C5      1.540   .     A
C4     C8      1.540   .     S
C5     C6      1.540   .     A
C5     H15     1.140   .     S
C6     H16     1.140   .     S
C7     O9      1.510   .     A
C7     O10     1.510   .     A
C8     O11     1.510   .     A
C8     O12     1.510   .     A
