data_3D\Atomistic
_audit_creation_date              2022-01-11
_audit_creation_method            'Materials Studio'
_symmetry_space_group_name_H-M    'P1'
_symmetry_Int_Tables_number       1
_symmetry_cell_setting            triclinic
loop_
_symmetry_equiv_pos_as_xyz
  x,y,z
_cell_length_a                    15.0000
_cell_length_b                    15.0000
_cell_length_c                    15.0000
_cell_angle_alpha                 90.0000
_cell_angle_beta                  90.0000
_cell_angle_gamma                 90.0000
loop_
_atom_site_label
_atom_site_type_symbol
_atom_site_fract_x
_atom_site_fract_y
_atom_site_fract_z
_atom_site_U_iso_or_equiv
_atom_site_adp_type
_atom_site_occupancy
O1     O     0.11419   0.37146   0.76091   0.00000  Uiso   1.00
O2     O     0.11419   0.52043   0.76091   0.00000  Uiso   1.00
C3     C     0.08844   0.44594   0.79092   0.00000  Uiso   1.00
O4     O     0.26459   0.60726   0.76091   0.00000  Uiso   1.00
O5     O     0.39361   0.53278   0.76091   0.00000  Uiso   1.00
C6     C     0.34198   0.59232   0.79092   0.00000  Uiso   1.00
O7     O     0.39361   0.35911   0.76091   0.00000  Uiso   1.00
O8     O     0.26459   0.28462   0.76091   0.00000  Uiso   1.00
C9     C     0.34198   0.29956   0.79092   0.00000  Uiso   1.00
O10    O     0.11419   0.37146   0.58002   0.00000  Uiso   1.00
O11    O     0.11419   0.52043   0.58002   0.00000  Uiso   1.00
C12    C     0.08844   0.44594   0.55001   0.00000  Uiso   1.00
O13    O     0.26459   0.60726   0.58002   0.00000  Uiso   1.00
O14    O     0.39361   0.53278   0.58002   0.00000  Uiso   1.00
C15    C     0.34198   0.59232   0.55001   0.00000  Uiso   1.00
O16    O     0.39361   0.35911   0.58002   0.00000  Uiso   1.00
O17    O     0.26459   0.28462   0.58002   0.00000  Uiso   1.00
C18    C     0.34198   0.29956   0.55001   0.00000  Uiso   1.00
Fe19   Fe    0.19239   0.55865   0.67047   0.00000  Uiso   1.00
O20    O     0.12879   0.66881   0.67047   0.00000  Uiso   1.00
Fe21   Fe    0.38761   0.44594   0.67047   0.00000  Uiso   1.00
O22    O     0.51481   0.44594   0.67047   0.00000  Uiso   1.00
Fe23   Fe    0.19239   0.33324   0.67047   0.00000  Uiso   1.00
O24    O     0.12879   0.22308   0.67047   0.00000  Uiso   1.00
O25    O     0.25747   0.44594   0.67047   0.00000  Uiso   1.00
loop_
_geom_bond_atom_site_label_1
_geom_bond_atom_site_label_2
_geom_bond_distance
_geom_bond_site_symmetry_2
_ccdc_geom_bond_type
O1     C3      1.265   .     D
O1     Fe23    1.883   .     S
O2     C3      1.265   .     D
O2     Fe19    1.883   .     S
O4     C6      1.265   .     D
O4     Fe19    1.883   .     S
O5     C6      1.265   .     D
O5     Fe21    1.883   .     S
O7     C9      1.265   .     D
O7     Fe21    1.883   .     S
O8     C9      1.265   .     D
O8     Fe23    1.883   .     S
O10    C12     1.265   .     D
O10    Fe23    1.883   .     S
O11    C12     1.265   .     D
O11    Fe19    1.883   .     S
O13    C15     1.265   .     D
O13    Fe19    1.883   .     S
O14    C15     1.265   .     D
O14    Fe21    1.883   .     S
O16    C18     1.265   .     D
O16    Fe21    1.883   .     S
O17    C18     1.265   .     D
O17    Fe23    1.883   .     S
Fe19   O20     1.908   .     S
Fe19   O25     1.952   .     S
Fe21   O22     1.908   .     S
Fe21   O25     1.952   .     S
Fe23   O24     1.908   .     S
Fe23   O25     1.952   .     S
