data_3D\Atomistic\(6)
_audit_creation_date              2022-01-11
_audit_creation_method            'Materials Studio'
_symmetry_space_group_name_H-M    'P1'
_symmetry_Int_Tables_number       1
_symmetry_cell_setting            triclinic
loop_
_symmetry_equiv_pos_as_xyz
  x,y,z
_cell_length_a                    15.0000
_cell_length_b                    15.0000
_cell_length_c                    15.0000
_cell_angle_alpha                 90.0000
_cell_angle_beta                  90.0000
_cell_angle_gamma                 90.0000
loop_
_atom_site_label
_atom_site_type_symbol
_atom_site_fract_x
_atom_site_fract_y
_atom_site_fract_z
_atom_site_U_iso_or_equiv
_atom_site_adp_type
_atom_site_occupancy
O1     O     0.43421   0.67203   0.53778   0.00000  Uiso   1.00
O2     O     0.43939   0.32223   0.51381   0.00000  Uiso   1.00
O3     O     0.58628   0.32609   0.48930   0.00000  Uiso   1.00
O4     O     0.58110   0.67588   0.51328   0.00000  Uiso   1.00
C5     C     0.50824   0.63451   0.52282   0.00000  Uiso   1.00
C6     C     0.50965   0.53914   0.51630   0.00000  Uiso   1.00
C7     C     0.51225   0.36360   0.50426   0.00000  Uiso   1.00
C8     C     0.51084   0.45898   0.51078   0.00000  Uiso   1.00
loop_
_geom_bond_atom_site_label_1
_geom_bond_atom_site_label_2
_geom_bond_distance
_geom_bond_site_symmetry_2
_ccdc_geom_bond_type
O1     C5      1.265   .     D
O2     C7      1.265   .     D
O3     C7      1.265   .     D
O4     C5      1.265   .     D
C5     C6      1.434   .     S
C6     C8      1.205   .     T
C7     C8      1.434   .     S
