data_751157
_audit_creation_date              2022-01-11
_audit_creation_method            'Materials Studio'
_symmetry_space_group_name_H-M    'I4/MMM'
_symmetry_Int_Tables_number       139
_symmetry_cell_setting            tetragonal
loop_
_symmetry_equiv_pos_as_xyz
  x,y,z
  -x,-y,z
  -y,x,z
  y,-x,z
  -x,y,-z
  x,-y,-z
  y,x,-z
  -y,-x,-z
  -x,-y,-z
  x,y,-z
  y,-x,-z
  -y,x,-z
  x,-y,z
  -x,y,z
  -y,-x,z
  y,x,z
  x+1/2,y+1/2,z+1/2
  -x+1/2,-y+1/2,z+1/2
  -y+1/2,x+1/2,z+1/2
  y+1/2,-x+1/2,z+1/2
  -x+1/2,y+1/2,-z+1/2
  x+1/2,-y+1/2,-z+1/2
  y+1/2,x+1/2,-z+1/2
  -y+1/2,-x+1/2,-z+1/2
  -x+1/2,-y+1/2,-z+1/2
  x+1/2,y+1/2,-z+1/2
  y+1/2,-x+1/2,-z+1/2
  -y+1/2,x+1/2,-z+1/2
  x+1/2,-y+1/2,z+1/2
  -x+1/2,y+1/2,z+1/2
  -y+1/2,-x+1/2,z+1/2
  y+1/2,x+1/2,z+1/2
_cell_length_a                    18.6543
_cell_length_b                    18.6543
_cell_length_c                    18.1444
_cell_angle_alpha                 90.0000
_cell_angle_beta                  90.0000
_cell_angle_gamma                 90.0000
loop_
_atom_site_label
_atom_site_type_symbol
_atom_site_fract_x
_atom_site_fract_y
_atom_site_fract_z
_atom_site_U_iso_or_equiv
_atom_site_adp_type
_atom_site_occupancy
O3     O     0.22590   0.14420   0.42680   0.00000  Uiso   1.00
C6     C     0.20150   0.28760   0.28980   0.00000  Uiso   1.00
H      H     0.17651   0.33095   0.32587   0.00000  Uiso   1.00
Ti     Ti    0.20830   0.07400   0.50000   0.00000  Uiso   1.00
O1     O     0.31110   0.05800   0.50000   0.00000  Uiso   1.00
C3     C     0.46320   0.07050   0.50000   0.00000  Uiso   1.00
O2     O     0.18190   0.00000   0.42650   0.00000  Uiso   1.00
O4     O     0.10740   0.10740   0.50000   0.00000  Uiso   1.00
C1     C     0.35070   0.00000   0.50000   0.00000  Uiso   1.00
C2     C     0.42650   0.00000   0.50000   0.00000  Uiso   1.00
C4     C     0.19400   0.19400   0.40230   0.00000  Uiso   1.00
C5     C     0.22250   0.22250   0.32090   0.00000  Uiso   1.00
loop_
_geom_bond_atom_site_label_1
_geom_bond_atom_site_label_2
_geom_bond_distance
_geom_bond_site_symmetry_2
_ccdc_geom_bond_type
O3     Ti      1.894   .     S
O3     C4      1.189   .     A
C6     C5      1.395   .     A
C6     C6      1.473   24    A
C6     H       1.140   .     S
Ti     O3      1.894   10_556 S
Ti     O1      1.941   .     S
Ti     O2      1.982   .     S
Ti     O2      1.982   6_556 S
Ti     O4      1.983   .     S
Ti     Ti      2.761   6_556 S
O1     C1      1.310   .     A
C3     C2      1.483   .     A
C3     C3      1.373   5_656 A
O2     Ti      1.982   6_556 S
O4     Ti      1.983   7_556 S
C1     O1      1.310   6_556 A
C1     C2      1.414   .     S
C2     C3      1.483   6_556 A
C4     O3      1.189   16    A
C4     C5      1.657   .     S
C5     C6      1.395   16    A
