data_3D\Atomistic\(3)
_audit_creation_date              2022-01-11
_audit_creation_method            'Materials Studio'
_symmetry_space_group_name_H-M    'P1'
_symmetry_Int_Tables_number       1
_symmetry_cell_setting            triclinic
loop_
_symmetry_equiv_pos_as_xyz
  x,y,z
_cell_length_a                    15.0000
_cell_length_b                    15.0000
_cell_length_c                    15.0000
_cell_angle_alpha                 90.0000
_cell_angle_beta                  90.0000
_cell_angle_gamma                 90.0000
loop_
_atom_site_label
_atom_site_type_symbol
_atom_site_fract_x
_atom_site_fract_y
_atom_site_fract_z
_atom_site_U_iso_or_equiv
_atom_site_adp_type
_atom_site_occupancy
O1     O     0.76242   0.69037   1.40313   0.00000  Uiso   1.00
O2     O     0.20055   0.33171   1.40313   0.00000  Uiso   1.00
O3     O     0.30215   0.79197   1.40313   0.00000  Uiso   1.00
O4     O     0.66081   0.23010   1.40313   0.00000  Uiso   1.00
O5     O     0.20055   0.69037   1.58022   0.00000  Uiso   1.00
O6     O     0.76242   0.33171   1.58022   0.00000  Uiso   1.00
O7     O     0.66081   0.79197   1.58022   0.00000  Uiso   1.00
O8     O     0.30215   0.23010   1.58022   0.00000  Uiso   1.00
O9     O     0.20055   0.33171   1.58022   0.00000  Uiso   1.00
O10    O     0.76242   0.69037   1.58022   0.00000  Uiso   1.00
O11    O     0.66081   0.23010   1.58022   0.00000  Uiso   1.00
O12    O     0.30215   0.79197   1.58022   0.00000  Uiso   1.00
O13    O     0.76242   0.33171   1.40313   0.00000  Uiso   1.00
O14    O     0.20055   0.69037   1.40313   0.00000  Uiso   1.00
O15    O     0.30215   0.23010   1.40313   0.00000  Uiso   1.00
O16    O     0.66081   0.79197   1.40313   0.00000  Uiso   1.00
Ti17   Ti    0.74053   0.60307   1.49168   0.00000  Uiso   1.00
O18    O     0.86837   0.58317   1.49168   0.00000  Uiso   1.00
Ti19   Ti    0.22244   0.41901   1.49168   0.00000  Uiso   1.00
O20    O     0.09459   0.43891   1.49168   0.00000  Uiso   1.00
Ti21   Ti    0.38945   0.77008   1.49168   0.00000  Uiso   1.00
O22    O     0.40935   0.89793   1.49168   0.00000  Uiso   1.00
Ti23   Ti    0.57351   0.25199   1.49168   0.00000  Uiso   1.00
O24    O     0.55361   0.12415   1.49168   0.00000  Uiso   1.00
Ti25   Ti    0.22244   0.60307   1.49168   0.00000  Uiso   1.00
O26    O     0.09459   0.58317   1.49168   0.00000  Uiso   1.00
Ti27   Ti    0.74053   0.41901   1.49168   0.00000  Uiso   1.00
O28    O     0.86837   0.43891   1.49168   0.00000  Uiso   1.00
Ti29   Ti    0.57351   0.77008   1.49168   0.00000  Uiso   1.00
O30    O     0.55361   0.89793   1.49168   0.00000  Uiso   1.00
Ti31   Ti    0.38945   0.25199   1.49168   0.00000  Uiso   1.00
O32    O     0.40935   0.12415   1.49168   0.00000  Uiso   1.00
O33    O     0.70770   0.51104   1.40277   0.00000  Uiso   1.00
O34    O     0.25527   0.51104   1.40277   0.00000  Uiso   1.00
O35    O     0.48148   0.73725   1.40277   0.00000  Uiso   1.00
O36    O     0.48148   0.28482   1.40277   0.00000  Uiso   1.00
O37    O     0.25527   0.51104   1.58058   0.00000  Uiso   1.00
O38    O     0.70770   0.51104   1.58058   0.00000  Uiso   1.00
O39    O     0.48148   0.73725   1.58058   0.00000  Uiso   1.00
O40    O     0.48148   0.28482   1.58058   0.00000  Uiso   1.00
O41    O     0.61505   0.64460   1.49168   0.00000  Uiso   1.00
O42    O     0.34792   0.37747   1.49168   0.00000  Uiso   1.00
O43    O     0.34792   0.64460   1.49168   0.00000  Uiso   1.00
O44    O     0.61505   0.37747   1.49168   0.00000  Uiso   1.00
C45    C     0.91762   0.51104   1.49168   0.00000  Uiso   1.00
C46    C     0.04534   0.51104   1.49168   0.00000  Uiso   1.00
C47    C     0.48148   0.94718   1.49168   0.00000  Uiso   1.00
C48    C     0.48148   0.07490   1.49168   0.00000  Uiso   1.00
C49    C     0.72274   0.75230   1.37350   0.00000  Uiso   1.00
C50    C     0.24022   0.26978   1.37350   0.00000  Uiso   1.00
C51    C     0.24022   0.75230   1.37350   0.00000  Uiso   1.00
C52    C     0.72274   0.26978   1.37350   0.00000  Uiso   1.00
C53    C     0.24022   0.75230   1.60986   0.00000  Uiso   1.00
C54    C     0.72274   0.26978   1.60986   0.00000  Uiso   1.00
C55    C     0.72274   0.75230   1.60986   0.00000  Uiso   1.00
C56    C     0.24022   0.26978   1.60986   0.00000  Uiso   1.00
loop_
_geom_bond_atom_site_label_1
_geom_bond_atom_site_label_2
_geom_bond_distance
_geom_bond_site_symmetry_2
_ccdc_geom_bond_type
O1     Ti17    1.894   .     S
O1     C49     1.189   .     D
O2     Ti19    1.894   .     S
O2     C50     1.189   .     D
O3     Ti21    1.894   .     S
O3     C51     1.189   .     D
O4     Ti23    1.894   .     S
O4     C52     1.189   .     D
O5     Ti25    1.894   .     S
O5     C53     1.189   .     D
O6     Ti27    1.894   .     S
O6     C54     1.189   .     D
O7     Ti29    1.894   .     S
O7     C55     1.189   .     D
O8     Ti31    1.894   .     S
O8     C56     1.189   .     D
O9     Ti19    1.894   .     S
O9     C56     1.189   .     D
O10    Ti17    1.894   .     S
O10    C55     1.189   .     D
O11    Ti23    1.894   .     S
O11    C54     1.189   .     D
O12    Ti21    1.894   .     S
O12    C53     1.189   .     D
O13    Ti27    1.894   .     S
O13    C52     1.189   .     D
O14    Ti25    1.894   .     S
O14    C51     1.189   .     D
O15    Ti31    1.894   .     S
O15    C50     1.189   .     D
O16    Ti29    1.894   .     S
O16    C49     1.189   .     D
Ti17   O18     1.941   .     S
Ti17   Ti27    2.761   .     S
Ti17   O33     1.982   .     S
Ti17   O38     1.982   .     S
Ti17   O41     1.983   .     S
O18    C45     1.310   .     D
Ti19   O20     1.941   .     S
Ti19   Ti25    2.761   .     S
Ti19   O34     1.982   .     S
Ti19   O37     1.982   .     S
Ti19   O42     1.983   .     S
O20    C46     1.310   .     D
Ti21   O22     1.941   .     S
Ti21   Ti29    2.761   .     S
Ti21   O35     1.982   .     S
Ti21   O39     1.982   .     S
Ti21   O43     1.983   .     S
O22    C47     1.310   .     D
Ti23   O40     1.982   .     S
Ti23   O24     1.941   .     S
Ti23   Ti31    2.761   .     S
Ti23   O36     1.982   .     S
Ti23   O44     1.983   .     S
O24    C48     1.310   .     D
Ti25   O26     1.941   .     S
Ti25   O34     1.982   .     S
Ti25   O37     1.982   .     S
Ti25   O43     1.983   .     S
O26    C46     1.310   .     D
Ti27   O44     1.983   .     S
Ti27   O28     1.941   .     S
Ti27   O33     1.982   .     S
Ti27   O38     1.982   .     S
O28    C45     1.310   .     D
Ti29   O30     1.941   .     S
Ti29   O35     1.982   .     S
Ti29   O39     1.982   .     S
Ti29   O41     1.983   .     S
O30    C47     1.310   .     D
Ti31   O32     1.941   .     S
Ti31   O36     1.982   .     S
Ti31   O40     1.982   .     S
Ti31   O42     1.983   .     S
O32    C48     1.310   .     D
