# generated using pymatgen
data_Fe3(C3O8)2
_symmetry_space_group_name_H-M   'P 1'
_cell_length_a   13.37830000
_cell_length_b   13.37830000
_cell_length_c   13.40930000
_cell_angle_alpha   90.00000000
_cell_angle_beta   90.00000000
_cell_angle_gamma   120.00000000
_symmetry_Int_Tables_number   1
_chemical_formula_structural   Fe3(C3O8)2
_chemical_formula_sum   'Fe3 C6 O16'
_cell_volume   2078.44530251
_cell_formula_units_Z   1
loop_
 _symmetry_equiv_pos_site_id
 _symmetry_equiv_pos_as_xyz
  1  'x, y, z'
loop_
 _atom_site_type_symbol
 _atom_site_label
 _atom_site_symmetry_multiplicity
 _atom_site_fract_x
 _atom_site_fract_y
 _atom_site_fract_z
 _atom_site_occupancy
  Fe  Fe0  1  0.75091000  0.24909000  0.25000000  1.0
  Fe  Fe1  1  0.75091000  0.50183000  0.25000000  1.0
  Fe  Fe2  1  0.49817000  0.24909000  0.25000000  1.0
  C  C3  1  0.55725000  0.11450000  0.11526000  1.0
  C  C4  1  0.88550000  0.44275000  0.11526000  1.0
  C  C5  1  0.55725000  0.44275000  0.11526000  1.0
  C  C6  1  0.55725000  0.44275000  0.38474000  1.0
  C  C7  1  0.55725000  0.11450000  0.38474000  1.0
  C  C8  1  0.88550000  0.44275000  0.38474000  1.0
  O  O9  1  0.49041000  0.14784000  0.14882000  1.0
  O  O10  1  0.65744000  0.14784000  0.14882000  1.0
  O  O11  1  0.85216000  0.34256000  0.14882000  1.0
  O  O12  1  0.85216000  0.50959000  0.14882000  1.0
  O  O13  1  0.65744000  0.50959000  0.14882000  1.0
  O  O14  1  0.49041000  0.34256000  0.14882000  1.0
  O  O15  1  0.49041000  0.34256000  0.35118000  1.0
  O  O16  1  0.65744000  0.50959000  0.35118000  1.0
  O  O17  1  0.49041000  0.14784000  0.35118000  1.0
  O  O18  1  0.65744000  0.14784000  0.35118000  1.0
  O  O19  1  0.33349000  0.16675000  0.25000000  1.0
  O  O20  1  0.66666667  0.33333333  0.25000000  1.0
  O  O21  1  0.85216000  0.50959000  0.35118000  1.0
  O  O22  1  0.85216000  0.34256000  0.35118000  1.0
  O  O23  1  0.83325000  0.66651000  0.25000000  1.0
  O  O24  1  0.83325000  0.16675000  0.25000000  1.0
