# generated using pymatgen
data_Zn4C6O13
_symmetry_space_group_name_H-M   'P 1'
_cell_length_a   32.50000000
_cell_length_b   32.50000000
_cell_length_c   32.50000000
_cell_angle_alpha   90.00000000
_cell_angle_beta   90.00000000
_cell_angle_gamma   90.00000000
_symmetry_Int_Tables_number   1
_chemical_formula_structural   Zn4C6O13
_chemical_formula_sum   'Zn4 C6 O13'
_cell_volume   34328.12500000
_cell_formula_units_Z   1
loop_
 _symmetry_equiv_pos_site_id
 _symmetry_equiv_pos_as_xyz
  1  'x, y, z'
loop_
 _atom_site_type_symbol
 _atom_site_label
 _atom_site_symmetry_multiplicity
 _atom_site_fract_x
 _atom_site_fract_y
 _atom_site_fract_z
 _atom_site_occupancy
  Zn  Zn0  1  0.19958000  0.19207000  0.26375000  1.0
  Zn  Zn1  1  0.26375000  0.19958000  0.19207000  1.0
  Zn  Zn2  1  0.19207000  0.26375000  0.19958000  1.0
  Zn  Zn3  1  0.26265000  0.26265000  0.26265000  1.0
  C  C4  1  0.23333000  0.11950000  0.22506000  1.0
  C  C5  1  0.22506000  0.23333000  0.11950000  1.0
  C  C6  1  0.11950000  0.22506000  0.23333000  1.0
  C  C7  1  0.22668000  0.33687000  0.23114000  1.0
  C  C8  1  0.23114000  0.22668000  0.33687000  1.0
  C  C9  1  0.33687000  0.23114000  0.22668000  1.0
  O  O10  1  0.21217000  0.13746000  0.25301000  1.0
  O  O11  1  0.25535000  0.14231000  0.19589000  1.0
  O  O12  1  0.25301000  0.21217000  0.13746000  1.0
  O  O13  1  0.19589000  0.25535000  0.14231000  1.0
  O  O14  1  0.13746000  0.25301000  0.21217000  1.0
  O  O15  1  0.14231000  0.19589000  0.25535000  1.0
  O  O16  1  0.20039000  0.32047000  0.20700000  1.0
  O  O17  1  0.24871000  0.31211000  0.25206000  1.0
  O  O18  1  0.25206000  0.24871000  0.31211000  1.0
  O  O19  1  0.20700000  0.20039000  0.32047000  1.0
  O  O20  1  0.31211000  0.25206000  0.24871000  1.0
  O  O21  1  0.32047000  0.20700000  0.20039000  1.0
  O  O22  1  0.22939000  0.22939000  0.22939000  1.0
