# generated using pymatgen
data_H3C5
_symmetry_space_group_name_H-M   'P 1'
_cell_length_a   32.50000000
_cell_length_b   32.50000000
_cell_length_c   32.50000000
_cell_angle_alpha   90.00000000
_cell_angle_beta   90.00000000
_cell_angle_gamma   90.00000000
_symmetry_Int_Tables_number   1
_chemical_formula_structural   H3C5
_chemical_formula_sum   'H3 C5'
_cell_volume   34328.12500000
_cell_formula_units_Z   1
loop_
 _symmetry_equiv_pos_site_id
 _symmetry_equiv_pos_as_xyz
  1  'x, y, z'
loop_
 _atom_site_type_symbol
 _atom_site_label
 _atom_site_symmetry_multiplicity
 _atom_site_fract_x
 _atom_site_fract_y
 _atom_site_fract_z
 _atom_site_occupancy
  H  H0  1  0.00882000  0.31857000  0.76783000  1.0
  H  H1  1  0.08620000  0.30988000  0.76364000  1.0
  H  H2  1  0.07206000  0.17560000  0.76340000  1.0
  C  C3  1  0.01435000  0.21223000  0.76503000  1.0
  C  C4  1  0.05781000  0.20765000  0.76399000  1.0
  C  C5  1  0.08396000  0.24245000  0.76367000  1.0
  C  C6  1  0.06549000  0.28158000  0.76455000  1.0
  C  C7  1  0.02247000  0.28628000  0.76651000  1.0
