data_UMCM-9
_audit_creation_date              2022-01-11
_audit_creation_method            'Materials Studio'
_symmetry_space_group_name_H-M    'P23'
_symmetry_Int_Tables_number       195
_symmetry_cell_setting            cubic
loop_
_symmetry_equiv_pos_as_xyz
  x,y,z
  -x,-y,z
  -x,y,-z
  x,-y,-z
  z,x,y
  z,-x,-y
  -z,-x,y
  -z,x,-y
  y,z,x
  -y,z,-x
  y,-z,-x
  -y,-z,x
_cell_length_a                    32.5000
_cell_length_b                    32.5000
_cell_length_c                    32.5000
_cell_angle_alpha                 90.0000
_cell_angle_beta                  90.0000
_cell_angle_gamma                 90.0000
loop_
_atom_site_label
_atom_site_type_symbol
_atom_site_fract_x
_atom_site_fract_y
_atom_site_fract_z
_atom_site_U_iso_or_equiv
_atom_site_adp_type
_atom_site_occupancy
Zn1    Zn    0.19958   0.19207   0.26375   0.00000  Uiso   1.00
O2     O     0.21217   0.13746   0.25301   0.00000  Uiso   1.00
O3     O     0.20039   0.32047   0.20700   0.00000  Uiso   1.00
O4     O     0.25206   0.24871   0.31211   0.00000  Uiso   1.00
O5     O     0.14231   0.19589   0.25535   0.00000  Uiso   1.00
C6     C     0.22668   0.33687   0.23114   0.00000  Uiso   1.00
C7     C     0.23333   0.11950   0.22506   0.00000  Uiso   1.00
O8     O     0.21499   0.84953   0.21602   0.00000  Uiso   1.00
O9     O     0.26364   0.73110   0.15005   0.00000  Uiso   1.00
O10    O     0.32365   0.77886   0.25645   0.00000  Uiso   1.00
O11    O     0.32935   0.72755   0.21453   0.00000  Uiso   1.00
C12    C     0.23943   0.86991   0.23936   0.00000  Uiso   1.00
Zn13   Zn    0.27232   0.72432   0.20677   0.00000  Uiso   1.00
C14    C     0.34719   0.75449   0.23677   0.00000  Uiso   1.00
C15    C     0.39352   1.24333   0.76112   0.00000  Uiso   1.00
C16    C     0.41762   1.27845   0.76917   0.00000  Uiso   1.00
C17    C     0.46105   1.27669   0.76911   0.00000  Uiso   1.00
C18    C     0.48208   1.23954   0.76172   0.00000  Uiso   1.00
C19    C     0.45793   1.20431   0.75379   0.00000  Uiso   1.00
C20    C     0.41441   1.20622   0.75319   0.00000  Uiso   1.00
C21    C     0.52858   1.23740   0.76343   0.00000  Uiso   1.00
C22    C     0.55348   1.27115   0.75208   0.00000  Uiso   1.00
C23    C     0.59695   1.26916   0.75445   0.00000  Uiso   1.00
C24    C     0.61697   1.23356   0.76892   0.00000  Uiso   1.00
C25    C     0.59209   1.19998   0.78041   0.00000  Uiso   1.00
C26    C     0.54879   1.20172   0.77742   0.00000  Uiso   1.00
C27    C     0.92679   1.22176   0.76630   0.00000  Uiso   1.00
C28    C     0.95305   1.25645   0.76807   0.00000  Uiso   1.00
C29    C     0.99650   1.25187   0.76685   0.00000  Uiso   1.00
C30    C     1.01435   1.21223   0.76503   0.00000  Uiso   1.00
C31    C     0.98832   1.17791   0.76328   0.00000  Uiso   1.00
C32    C     0.94525   1.18269   0.76359   0.00000  Uiso   1.00
C33    C     1.02247   1.28628   0.76651   0.00000  Uiso   1.00
C34    C     1.06549   1.28158   0.76455   0.00000  Uiso   1.00
C35    C     1.08396   1.24245   0.76367   0.00000  Uiso   1.00
C36    C     1.05781   1.20765   0.76399   0.00000  Uiso   1.00
H39    H     0.40212   1.30918   0.77593   0.00000  Uiso   1.00
H40    H     0.47979   1.30573   0.77513   0.00000  Uiso   1.00
H41    H     0.47342   1.17344   0.74768   0.00000  Uiso   1.00
H42    H     0.39627   1.17704   0.74613   0.00000  Uiso   1.00
H43    H     0.53866   1.30084   0.74071   0.00000  Uiso   1.00
H44    H     0.61633   1.29667   0.74455   0.00000  Uiso   1.00
H45    H     0.60685   1.17053   0.79245   0.00000  Uiso   1.00
H46    H     0.53015   1.17347   0.78661   0.00000  Uiso   1.00
H47    H     0.93940   1.28867   0.77051   0.00000  Uiso   1.00
H48    H     1.00195   1.14563   0.76158   0.00000  Uiso   1.00
H49    H     0.92525   1.15394   0.76158   0.00000  Uiso   1.00
H50    H     1.00882   1.31857   0.76783   0.00000  Uiso   1.00
H51    H     1.08620   1.30988   0.76364   0.00000  Uiso   1.00
H52    H     1.07206   1.17560   0.76340   0.00000  Uiso   1.00
Zn53   Zn    0.20631   0.79369   0.20631   0.00000  Uiso   1.00
O54    O     0.23965   0.76035   0.23965   0.00000  Uiso   1.00
O55    O     0.77061   0.77061   0.22939   0.00000  Uiso   1.00
Zn56   Zn    0.26265   0.73735   0.73735   0.00000  Uiso   1.00
loop_
_geom_bond_atom_site_label_1
_geom_bond_atom_site_label_2
_geom_bond_distance
_geom_bond_site_symmetry_2
_ccdc_geom_bond_type
Zn1    O2      1.855   .     S
Zn1    O5      1.885   .     S
Zn1    O3      1.879   5     S
Zn1    O55     1.912   2_665 S
O2     C7      1.280   .     D
O3     C6      1.277   .     D
O3     Zn1     1.879   9     S
O4     C6      1.274   5     S
O4     Zn56    1.705   4_566 S
O5     C7      1.400   9     S
C6     O4      1.274   9     S
C6     C24     1.509   7_664 S
C7     O5      1.400   5     S
C7     C27     1.508   7_664 S
O8     C12     1.283   .     D
O8     Zn53    1.864   .     S
O9     Zn13    1.878   .     S
O9     C12     1.400   6_566 S
O10    C14     1.273   .     D
O10    Zn13    1.707   12_665 S
O11    Zn13    1.873   .     S
O11    C14     1.275   .     S
C12    O9      1.400   12_665 S
C12    C35     1.506   7_674 S
Zn13   O54     1.908   .     S
Zn13   O10     1.707   6_566 S
C14    C15     1.509   4_576 S
C15    C16     1.409   .     D
C15    C20     1.408   .     S
C15    C14     1.509   4_576 S
C16    C17     1.413   .     S
C16    H39     1.140   .     S
C17    C18     1.408   .     D
C17    H40     1.140   .     S
C18    C19     1.412   .     S
C18    C21     1.514   .     S
C19    C20     1.416   .     D
C19    H41     1.140   .     S
C20    H42     1.140   .     S
C21    C22     1.412   .     S
C21    C26     1.408   .     D
C22    C23     1.416   .     D
C22    H43     1.140   .     S
C23    C24     1.408   .     S
C23    H44     1.140   .     S
C24    C25     1.409   .     D
C24    C6      1.509   10_666 S
C25    C26     1.412   .     S
C25    H45     1.140   .     S
C26    H46     1.140   .     S
C27    C28     1.415   .     D
C27    C32     1.407   .     S
C27    C7      1.508   10_666 S
C28    C29     1.421   .     S
C28    H47     1.140   .     S
C29    C30     1.414   .     S
C29    C33     1.401   .     D
C30    C31     1.401   .     S
C30    C36     1.421   .     D
C31    C32     1.408   .     D
C31    H48     1.140   .     S
C32    H49     1.140   .     S
C33    C34     1.408   .     S
C33    H50     1.140   .     S
C34    C35     1.407   .     D
C34    H51     1.140   .     S
C35    C36     1.415   .     S
C35    C12     1.506   10_766 S
C36    H52     1.140   .     S
Zn53   O8      1.864   6_566 S
Zn53   O8      1.864   12_665 S
Zn53   O54     1.877   .     S
O54    Zn13    1.908   6_566 S
O54    Zn13    1.908   12_665 S
O55    Zn1     1.912   2_665 S
O55    Zn1     1.912   7_665 S
O55    Zn1     1.912   12_665 S
O55    Zn56    1.872   3_656 S
Zn56   O4      1.705   4_566 S
Zn56   O4      1.705   6_566 S
Zn56   O4      1.705   11_566 S
Zn56   O55     1.872   3_656 S
