data_cif_output_5.mol
_audit_creation_date              2022-05-12
_audit_creation_method            'Materials Studio'
_symmetry_space_group_name_H-M    'P1'
_symmetry_Int_Tables_number       1
_symmetry_cell_setting            triclinic
loop_
_symmetry_equiv_pos_as_xyz
  x,y,z
_cell_length_a                    40.0000
_cell_length_b                    40.0000
_cell_length_c                    40.0000
_cell_angle_alpha                 90.0000
_cell_angle_beta                  90.0000
_cell_angle_gamma                 90.0000
loop_
_atom_site_label
_atom_site_type_symbol
_atom_site_fract_x
_atom_site_fract_y
_atom_site_fract_z
_atom_site_U_iso_or_equiv
_atom_site_adp_type
_atom_site_occupancy
F1     F       0.03072 -0.06308  -0.0095  0.00000  Uiso   1.00
C2     C       0.01556 -0.03352 -0.00504  0.00000  Uiso   1.00
C3     C      -0.01921 -0.03236 -0.00437  0.00000  Uiso   1.00
C4     C      -0.03481 -0.00173  0.00026  0.00000  Uiso   1.00
O5     O      -0.06893 -0.00067   0.0009  0.00000  Uiso   1.00
C6     C      -0.01592  0.02732  0.00415  0.00000  Uiso   1.00
F7     F      -0.03158  0.05663  0.00859  0.00000  Uiso   1.00
C8     C       0.01885  0.02631  0.00351  0.00000  Uiso   1.00
C9     C       0.03455 -0.00441 -0.00113  0.00000  Uiso   1.00
O10    O       0.06861 -0.00668 -0.00195  0.00000  Uiso   1.00
H11    H      -0.03363 -0.05511 -0.00743  0.00000  Uiso   1.00
H12    H       -0.0754  0.02261  0.00434  0.00000  Uiso   1.00
H13    H       0.03282  0.04931  0.00661  0.00000  Uiso   1.00
H14    H       0.07837  0.01535  0.00107  0.00000  Uiso   1.00
loop_
_geom_bond_atom_site_label_1
_geom_bond_atom_site_label_2
_geom_bond_distance
_geom_bond_site_symmetry_2
_ccdc_geom_bond_type
F1     C2       0.03352  .   S
C2     C3        0.0348  .   D
C3     C4       0.03468  .   S
C4     O5       0.03414  .   S
C4     C6       0.03487  .   D
C6     F7       0.03353  .   S
C6     C8       0.03479  .   S
C8     C9       0.03481  .   D
C9     O10      0.03415  .   S
C9     C2       0.03498  .   S
C3     H11      0.02711  .   S
O5     H12      0.02441  .   S
C8     H13      0.02709  .   S
O10    H14      0.02428  .   S
