data_output_5_0511
_audit_creation_date              2022-05-11
_audit_creation_method            'Materials Studio'
_symmetry_space_group_name_H-M    'P1'
_symmetry_Int_Tables_number       1
_symmetry_cell_setting            triclinic
loop_
_symmetry_equiv_pos_as_xyz
  x,y,z
_cell_length_a                    10.0000
_cell_length_b                    10.0000
_cell_length_c                    10.0000
_cell_angle_alpha                 90.0000
_cell_angle_beta                  90.0000
_cell_angle_gamma                 90.0000
loop_
_atom_site_label
_atom_site_type_symbol
_atom_site_fract_x
_atom_site_fract_y
_atom_site_fract_z
_atom_site_U_iso_or_equiv
_atom_site_adp_type
_atom_site_occupancy
F1     F     0.18297  -0.20122   0.01252   0.00000  Uiso   1.00
C2     C     0.09200  -0.10291   0.00630   0.00000  Uiso   1.00
C3     C    -0.04314  -0.13412  -0.00246   0.00000  Uiso   1.00
C4     C    -0.13487  -0.03000  -0.00874   0.00000  Uiso   1.00
O5     O    -0.26773  -0.06050  -0.01736   0.00000  Uiso   1.00
C6     C    -0.09200   0.10291  -0.00630   0.00000  Uiso   1.00
F7     F    -0.18297   0.20122  -0.01252   0.00000  Uiso   1.00
C8     C     0.04314   0.13412   0.00246   0.00000  Uiso   1.00
C9     C     0.13487   0.03000   0.00875   0.00000  Uiso   1.00
O10    O     0.26773   0.06050   0.01736   0.00000  Uiso   1.00
H11    H    -0.07567  -0.23751  -0.00431   0.00000  Uiso   1.00
H12    H    -0.31647   0.02403  -0.02078   0.00000  Uiso   1.00
H13    H     0.07567   0.23751   0.00431   0.00000  Uiso   1.00
H14    H     0.31647  -0.02403   0.02078   0.00000  Uiso   1.00
loop_
_geom_bond_atom_site_label_1
_geom_bond_atom_site_label_2
_geom_bond_distance
_geom_bond_site_symmetry_2
_ccdc_geom_bond_type
F1     C2      1.341   .     S
C2     C3      1.390   .     D
C3     C4      1.389   .     S
C3     H11     1.084   .     S
C4     O5      1.366   .     S
C4     C6      1.397   .     D
O5     H12     0.976   .     S
C6     F7      1.341   .     S
C2     C9      1.397   .     S
C6     C8      1.390   .     S
C8     C9      1.389   .     D
C8     H13     1.084   .     S
C9     O10     1.366   .     S
O10    H14     0.976   .     S
