# generated using pymatgen
data_H2C3
_symmetry_space_group_name_H-M   'P 1'
_cell_length_a   18.65430000
_cell_length_b   18.65430000
_cell_length_c   18.14440000
_cell_angle_alpha   90.00000000
_cell_angle_beta   90.00000000
_cell_angle_gamma   90.00000000
_symmetry_Int_Tables_number   1
_chemical_formula_structural   H2C3
_chemical_formula_sum   'H4 C6'
_cell_volume   6313.94108481
_cell_formula_units_Z   2
loop_
 _symmetry_equiv_pos_site_id
 _symmetry_equiv_pos_as_xyz
  1  'x, y, z'
loop_
 _atom_site_type_symbol
 _atom_site_label
 _atom_site_symmetry_multiplicity
 _atom_site_fract_x
 _atom_site_fract_y
 _atom_site_fract_z
 _atom_site_occupancy
  H  H0  1  0.32349000  0.83095000  0.17413000  1.0
  H  H1  1  0.17651000  0.66905000  0.32587000  1.0
  H  H2  1  0.16905000  0.67651000  0.17413000  1.0
  H  H3  1  0.33095000  0.82349000  0.32587000  1.0
  C  C4  1  0.28760000  0.79850000  0.28980000  1.0
  C  C5  1  0.29850000  0.78760000  0.21020000  1.0
  C  C6  1  0.27750000  0.72250000  0.17910000  1.0
  C  C7  1  0.21240000  0.70150000  0.21020000  1.0
  C  C8  1  0.20150000  0.71240000  0.28980000  1.0
  C  C9  1  0.22250000  0.77750000  0.32090000  1.0
