# generated using pymatgen
data_TiCO3
_symmetry_space_group_name_H-M   'P 1'
_cell_length_a   18.65430000
_cell_length_b   18.65430000
_cell_length_c   18.14440000
_cell_angle_alpha   90.00000000
_cell_angle_beta   90.00000000
_cell_angle_gamma   90.00000000
_symmetry_Int_Tables_number   1
_chemical_formula_structural   TiCO3
_chemical_formula_sum   'Ti8 C8 O24'
_cell_volume   6313.94108481
_cell_formula_units_Z   8
loop_
 _symmetry_equiv_pos_site_id
 _symmetry_equiv_pos_as_xyz
  1  'x, y, z'
loop_
 _atom_site_type_symbol
 _atom_site_label
 _atom_site_symmetry_multiplicity
 _atom_site_fract_x
 _atom_site_fract_y
 _atom_site_fract_z
 _atom_site_occupancy
  Ti  Ti0  1  0.29170000  0.57400000  0.00000000  1.0
  Ti  Ti1  1  0.29170000  0.42600000  0.00000000  1.0
  Ti  Ti2  1  0.42600000  0.29170000  0.00000000  1.0
  Ti  Ti3  1  0.57400000  0.29170000  0.00000000  1.0
  Ti  Ti4  1  0.70830000  0.42600000  0.00000000  1.0
  Ti  Ti5  1  0.70830000  0.57400000  0.00000000  1.0
  Ti  Ti6  1  0.57400000  0.70830000  0.00000000  1.0
  Ti  Ti7  1  0.42600000  0.70830000  0.00000000  1.0
  C  C8  1  0.14930000  0.50000000  0.00000000  1.0
  C  C9  1  0.30600000  0.30600000  0.09770000  1.0
  C  C10  1  0.50000000  0.14930000  0.00000000  1.0
  C  C11  1  0.69400000  0.30600000  0.09770000  1.0
  C  C12  1  0.85070000  0.50000000  0.00000000  1.0
  C  C13  1  0.69400000  0.69400000  0.09770000  1.0
  C  C14  1  0.50000000  0.85070000  0.00000000  1.0
  C  C15  1  0.30600000  0.69400000  0.09770000  1.0
  O  O16  1  0.27410000  0.64420000  0.07320000  1.0
  O  O17  1  0.18890000  0.55800000  0.00000000  1.0
  O  O18  1  0.18890000  0.44200000  0.00000000  1.0
  O  O19  1  0.27410000  0.35580000  0.07320000  1.0
  O  O20  1  0.35580000  0.27410000  0.07320000  1.0
  O  O21  1  0.44200000  0.18890000  0.00000000  1.0
  O  O22  1  0.55800000  0.18890000  0.00000000  1.0
  O  O23  1  0.64420000  0.27410000  0.07320000  1.0
  O  O24  1  0.72590000  0.35580000  0.07320000  1.0
  O  O25  1  0.81110000  0.44200000  0.00000000  1.0
  O  O26  1  0.81110000  0.55800000  0.00000000  1.0
  O  O27  1  0.72590000  0.64420000  0.07320000  1.0
  O  O28  1  0.64420000  0.72590000  0.07320000  1.0
  O  O29  1  0.55800000  0.81110000  0.00000000  1.0
  O  O30  1  0.44200000  0.81110000  0.00000000  1.0
  O  O31  1  0.35580000  0.72590000  0.07320000  1.0
  O  O32  1  0.50000000  0.68190000  0.07350000  1.0
  O  O33  1  0.39260000  0.60740000  0.00000000  1.0
  O  O34  1  0.60740000  0.60740000  0.00000000  1.0
  O  O35  1  0.68190000  0.50000000  0.07350000  1.0
  O  O36  1  0.60740000  0.39260000  0.00000000  1.0
  O  O37  1  0.50000000  0.31810000  0.07350000  1.0
  O  O38  1  0.39260000  0.39260000  0.00000000  1.0
  O  O39  1  0.31810000  0.50000000  0.07350000  1.0
