# generated using pymatgen
data_Ti6C18O29
_symmetry_space_group_name_H-M   'P 1'
_cell_length_a   18.65430000
_cell_length_b   18.65430000
_cell_length_c   18.14440000
_cell_angle_alpha   90.00000000
_cell_angle_beta   90.00000000
_cell_angle_gamma   90.00000000
_symmetry_Int_Tables_number   1
_chemical_formula_structural   Ti6C18O29
_chemical_formula_sum   'Ti6 C18 O29'
_cell_volume   6313.94108481
_cell_formula_units_Z   1
loop_
 _symmetry_equiv_pos_site_id
 _symmetry_equiv_pos_as_xyz
  1  'x, y, z'
loop_
 _atom_site_type_symbol
 _atom_site_label
 _atom_site_symmetry_multiplicity
 _atom_site_fract_x
 _atom_site_fract_y
 _atom_site_fract_z
 _atom_site_occupancy
  Ti  Ti0  1  0.20830000  0.07400000  0.50000000  1.0
  Ti  Ti1  1  0.07400000  0.20830000  0.50000000  1.0
  Ti  Ti2  1  0.07400000  0.79170000  0.50000000  1.0
  Ti  Ti3  1  0.20830000  0.92600000  0.50000000  1.0
  Ti  Ti4  1  0.79170000  0.07400000  0.50000000  1.0
  Ti  Ti5  1  0.92600000  0.20830000  0.50000000  1.0
  C  C6  1  0.19400000  0.19400000  0.59770000  1.0
  C  C7  1  0.19400000  0.19400000  0.40230000  1.0
  C  C8  1  0.00000000  0.35070000  0.50000000  1.0
  C  C9  1  0.00000000  0.42650000  0.50000000  1.0
  C  C10  1  0.07050000  0.46320000  0.50000000  1.0
  C  C11  1  0.07050000  0.53680000  0.50000000  1.0
  C  C12  1  0.00000000  0.57350000  0.50000000  1.0
  C  C13  1  0.00000000  0.64930000  0.50000000  1.0
  C  C14  1  0.19400000  0.80600000  0.40230000  1.0
  C  C15  1  0.19400000  0.80600000  0.59770000  1.0
  C  C16  1  0.35070000  0.00000000  0.50000000  1.0
  C  C17  1  0.42650000  0.00000000  0.50000000  1.0
  C  C18  1  0.46320000  0.07050000  0.50000000  1.0
  C  C19  1  0.53680000  0.07050000  0.50000000  1.0
  C  C20  1  0.57350000  0.00000000  0.50000000  1.0
  C  C21  1  0.64930000  0.00000000  0.50000000  1.0
  C  C22  1  0.80600000  0.19400000  0.59770000  1.0
  C  C23  1  0.80600000  0.19400000  0.40230000  1.0
  O  O24  1  0.22590000  0.14420000  0.42680000  1.0
  O  O25  1  0.22590000  0.14420000  0.57320000  1.0
  O  O26  1  0.14420000  0.22590000  0.57320000  1.0
  O  O27  1  0.14420000  0.22590000  0.42680000  1.0
  O  O28  1  0.05800000  0.31110000  0.50000000  1.0
  O  O29  1  0.05800000  0.68890000  0.50000000  1.0
  O  O30  1  0.14420000  0.77410000  0.42680000  1.0
  O  O31  1  0.22590000  0.85580000  0.42680000  1.0
  O  O32  1  0.22590000  0.85580000  0.57320000  1.0
  O  O33  1  0.14420000  0.77410000  0.57320000  1.0
  O  O34  1  0.31110000  0.94200000  0.50000000  1.0
  O  O35  1  0.10740000  0.89260000  0.50000000  1.0
  O  O36  1  0.00000000  0.81810000  0.42650000  1.0
  O  O37  1  0.00000000  0.81810000  0.57350000  1.0
  O  O38  1  0.00000000  0.18190000  0.42650000  1.0
  O  O39  1  0.00000000  0.18190000  0.57350000  1.0
  O  O40  1  0.10740000  0.10740000  0.50000000  1.0
  O  O41  1  0.31110000  0.05800000  0.50000000  1.0
  O  O42  1  0.68890000  0.05800000  0.50000000  1.0
  O  O43  1  0.77410000  0.14420000  0.57320000  1.0
  O  O44  1  0.85580000  0.22590000  0.57320000  1.0
  O  O45  1  0.85580000  0.22590000  0.42680000  1.0
  O  O46  1  0.77410000  0.14420000  0.42680000  1.0
  O  O47  1  0.94200000  0.31110000  0.50000000  1.0
  O  O48  1  0.89260000  0.10740000  0.50000000  1.0
  O  O49  1  0.81810000  0.00000000  0.42650000  1.0
  O  O50  1  0.81810000  0.00000000  0.57350000  1.0
  O  O51  1  0.18190000  0.00000000  0.42650000  1.0
  O  O52  1  0.18190000  0.00000000  0.57350000  1.0
